src/Test_Network/C6_Master.dss
Clear
New Circuit.IEEE8500  
~ pu=1.05  r1=0  x1=0.001  r0=0  x0=0.001  
Redirect  LineCodes2.dss
Redirect  Triplex_Linecodes.dss
Redirect  C6_Lines.dss
Redirect  C6_Transformers.dss
Redirect  C6_LoadXfmrs.dss    ! Load Transformers
Redirect  C6_Triplex_Lines.dss
Redirect  C6_Loads.dss     ! Balanced Loads
Redirect  C6_Capacitors.dss
Redirect  C6_CapControls.dss
Redirect  C6_Regulators.dss
Set voltagebases=[115, 12.47,  0.48, 0.208]
Calcvoltagebases     ! This also establishes the bus list
Buscoords  C6_Buscoords.dss
